gams_code/other/case14m.m
function [mpc] = case14m(init)

%% MATPOWER Case Format : Version 2
mpc.version = '2';

%%-----  Power Flow Data  -----%%
%% system MVA base
mpc.baseMVA = 100;

%% bus data
%	bus_i	type	Pd      Qd      Gs	Bs	area	Vm      Va      baseKV	zone	Vmax	Vmin
mpc.bus = [
	1       3   	0       0       0	0	1       1.06	0       0       1       1.06	0.94;
	2       2       21.7	12.7	0	0	1       1.045	-4.98	0       1       1.06	0.94;
	3       2       94.2	19      0	0	1       1.01	-12.72	0       1       1.06	0.94;
	4       1       47.8	0   	0	0	1       1.019	-20.00	0       1       1.06	0.94;
	5       1       7.6     1.6     0	0	1       1.02	-20.00	0       1       1.06	0.94;
	6       2       11.2	7.5     0	0	1       1.07	-14.22	0       1       1.06	0.94;
	7       1       0       0       0	0	1       1.062	-20.00	0       1       1.06	0.94;
	8       2       0       0       0	0	1       1.09	-13.36	0       1       1.06	0.94;
	9       1       29.5	16.6	0	45	1       1.056	-20.00	0       1       1.06	0.94;
	10      1       18      11.6    0	0	1       1.051	-20.00	0       1       1.06	0.94;
	11      1       7       3.6     0	0	1       1.057	-20.00	0       1       1.06	0.94;
	12      1       6.1     1.6     0	0	1       1.055	-20.00	0       1       1.06	0.94;
	13      1       27  	11.6    0	0	1       1.05	-30.00	0       1       1.06	0.94;
	14      1       0       0       0	0	1       1.036	-30.00	0       1       1.06	0.94;
    15      1       30  	12      0	0	1       1.036	-30.00	0       1       1.06	0.94;
];

%% generator data
%	bus	Pg      Qg      Qmax	Qmin	Vg      ifd     mBase	status	Pmax	Pmin	Pc1	Pc2	Qc1min	Qc1max	Qc2min	Qc2max	ramp_agc	ramp_10	ramp_30	ramp_q	apf
mpc.gen = [
	1	282.4	-16.9	10      -20     1.06    0       100     1       332.4	0       0	0	0	0	0	0	0	0	0	0	0;
	2	40      42.4	50      -40     1.045	0       100     1       140     0       0	0	0	0	0	0	0	0	0	0	0;
	3	0       23.4	40      0       1.01	0       100     1       0       0       0	0	0	0	0	0	0	0	0	0	0;
	6	0       12.2	24      -6      1.07	0       100     1       0       0       0	0	0	0	0	0	0	0	0	0	0;
	8	0       17.4	24      -6      1.09	0       100     1       0       0       0	0	0	0	0	0	0	0	0	0	0;
];

%% branch data
%	fbus	tbus	r       x       b       rateA	rateB	rateC	ratio	angle	status	angmin	angmax
mpc.branch = [
	1       2       0.01938	0.05917	0.0528	999	0	0	0	0	1	-360	360;
%    1       2       0.03876	0.11834	0.0264	999	0	0	0	0	1	-360	360;
	1       5       0.05403	0.22304	0.0492	999	0	0	0	0	1	-360	360;
	2       3       0.04699	0.19797	0.0438	999	0	0	0	0	1	-360	360;
	2       4       0.05811	0.17632	0.034	999	0	0	0	0	1	-360	360;
	2       5       0.05695	0.17388	0.0346	999	0	0	0	0	1	-360	360;
	3       4       0.06701	0.17103	0.0128	999	0	0	0	0	1	-360	360;
	4       5       0.01335	0.04211	0       999	0	0	0	0	1	-360	360;
	4       7       0       0.20912	0       999	0	0	0.978	0	1	-360	360;
	4       9       0       0.55618	0       999	0	0	0.969	0	1	-360	360;
	5       6       0       0.25202	0       999	0	0	0.932	0	1	-360	360;
	6       11      0.09498	0.1989	0       999	0	0	0	0	1	-360	360;
	6       12      0.12291	0.25581	0       999	0	0	0	0	1	-360	360;
	6       13      0.06615	0.13027	0       999	0	0	0	0	1	-360	360;
	7       8       0       0.17615	0       999	0	0	0	0	1	-360	360;
	7       9       0       0.11001	0       999	0	0	0	0	1	-360	360;
	9       10      0.03181	0.0845	0       999	0	0	0	0	1	-360	360;
	9       14      0.12711	0.27038	0       999	0	0	0	0	1	-360	360;
	10      11      0.08205	0.19207	0       999	0	0	0	0	1	-360	360;
	12      13      0.22092	0.19988	0       999	0	0	0	0	1	-360	360;
	13      14      0.17093	0.34802	0       999	0	0	0	0	1	-360	360;
];

mpc.branch_ltc = [ 14      15      0   	20   	0       999	0	0	1	0	1	1.05	0.95;
                   15      14      0   	20   	0       999	0	0	1	0	1	1.05	0.95;];
               
mpc.svc = [14      1       0    0       0	0	1       1.036	-16.04	0       1       1.1	  0.9;];
%%-------------------------------------------------------------------------
end
    
    